11

C     -0.250792    0.124101    0.056779
C      0.770242   -0.716462   -0.313159
C      1.934135    0.020464   -0.033322
N      1.657350    1.224854    0.471109
O      0.273711    1.288706    0.527432
C     -1.720390    0.026404    0.048101
H      0.686755   -1.711178   -0.723029
H      2.968079   -0.261776   -0.172472
H     -2.153554    0.812349   -0.578104
H     -2.118117    0.133604    1.061903
H     -2.047418   -0.941066   -0.345237
