          12
 
C            -0.2507920233            0.1241010115            0.0567790053
C             0.7702420715           -0.7164620665           -0.3131590291
C             1.9341351794            0.0204640019           -0.0333220031
N             1.6573501538            1.2248541136            0.4711090437
O             0.2737110254            1.2887061196            0.5274320489
C            -1.7203901596            0.0264040024            0.0481010045
H             0.6867550637           -1.7111781588           -0.7230290671
H             2.9680792754           -0.2617760243           -0.1724720160
H            -2.1535541998            0.8123490754           -0.5781040536
H            -2.1181171965            0.1336040124            1.0619030985
H            -2.0474181900           -0.9410660873           -0.3452370320
H            -0.1807389212            1.9751696075            1.0443493821
          12
 
C            -0.2507920233            0.1241010115            0.0567790053
C             0.7702420715           -0.7164620665           -0.3131590291
C             1.9341351794            0.0204640019           -0.0333220031
N             1.6573501538            1.2248541136            0.4711090437
O             0.2737110254            1.2887061196            0.5274320489
C            -1.7203901596            0.0264040024            0.0481010045
H             0.6867550637           -1.7111781588           -0.7230290671
H             2.9680792754           -0.2617760243           -0.1724720160
H            -2.1535541998            0.8123490754           -0.5781040536
H            -2.1181171965            0.1336040124            1.0619030985
H            -2.0474181900           -0.9410660873           -0.3452370320
H             0.2710414155            1.2159931323            0.2987349355
          12
 
C            -0.2507920233            0.1241010115            0.0567790053
C             0.7702420715           -0.7164620665           -0.3131590291
C             1.9341351794            0.0204640019           -0.0333220031
N             1.6573501538            1.2248541136            0.4711090437
O             0.2737110254            1.2887061196            0.5274320489
C            -1.7203901596            0.0264040024            0.0481010045
H             0.6867550637           -1.7111781588           -0.7230290671
H             2.9680792754           -0.2617760243           -0.1724720160
H            -2.1535541998            0.8123490754           -0.5781040536
H            -2.1181171965            0.1336040124            1.0619030985
H            -2.0474181900           -0.9410660873           -0.3452370320
H             1.7487872743            0.5848418144            0.4832484380
          12
 
C            -0.2507920233            0.1241010115            0.0567790053
C             0.7702420715           -0.7164620665           -0.3131590291
C             1.9341351794            0.0204640019           -0.0333220031
N             1.6573501538            1.2248541136            0.4711090437
O             0.2737110254            1.2887061196            0.5274320489
C            -1.7203901596            0.0264040024            0.0481010045
H             0.6867550637           -1.7111781588           -0.7230290671
H             2.9680792754           -0.2617760243           -0.1724720160
H            -2.1535541998            0.8123490754           -0.5781040536
H            -2.1181171965            0.1336040124            1.0619030985
H            -2.0474181900           -0.9410660873           -0.3452370320
H             1.7366055375            0.7807325076            0.0044509359
          12
 
C            -0.2507920233            0.1241010115            0.0567790053
C             0.7702420715           -0.7164620665           -0.3131590291
C             1.9341351794            0.0204640019           -0.0333220031
N             1.6573501538            1.2248541136            0.4711090437
O             0.2737110254            1.2887061196            0.5274320489
C            -1.7203901596            0.0264040024            0.0481010045
H             0.6867550637           -1.7111781588           -0.7230290671
H             2.9680792754           -0.2617760243           -0.1724720160
H            -2.1535541998            0.8123490754           -0.5781040536
H            -2.1181171965            0.1336040124            1.0619030985
H            -2.0474181900           -0.9410660873           -0.3452370320
H             0.3708791302           -0.4156998005            0.1094338000
          12
 
C            -0.2507920233            0.1241010115            0.0567790053
C             0.7702420715           -0.7164620665           -0.3131590291
C             1.9341351794            0.0204640019           -0.0333220031
N             1.6573501538            1.2248541136            0.4711090437
O             0.2737110254            1.2887061196            0.5274320489
C            -1.7203901596            0.0264040024            0.0481010045
H             0.6867550637           -1.7111781588           -0.7230290671
H             2.9680792754           -0.2617760243           -0.1724720160
H            -2.1535541998            0.8123490754           -0.5781040536
H            -2.1181171965            0.1336040124            1.0619030985
H            -2.0474181900           -0.9410660873           -0.3452370320
H             0.3719479549           -0.2082796169           -0.3873055547
          12
 
C            -0.2507920233            0.1241010115            0.0567790053
C             0.7702420715           -0.7164620665           -0.3131590291
C             1.9341351794            0.0204640019           -0.0333220031
N             1.6573501538            1.2248541136            0.4711090437
O             0.2737110254            1.2887061196            0.5274320489
C            -1.7203901596            0.0264040024            0.0481010045
H             0.6867550637           -1.7111781588           -0.7230290671
H             2.9680792754           -0.2617760243           -0.1724720160
H            -2.1535541998            0.8123490754           -0.5781040536
H            -2.1181171965            0.1336040124            1.0619030985
H            -2.0474181900           -0.9410660873           -0.3452370320
H             0.4176227937            1.1594605111            0.6694941942
          12
 
C            -0.2507920233            0.1241010115            0.0567790053
C             0.7702420715           -0.7164620665           -0.3131590291
C             1.9341351794            0.0204640019           -0.0333220031
N             1.6573501538            1.2248541136            0.4711090437
O             0.2737110254            1.2887061196            0.5274320489
C            -1.7203901596            0.0264040024            0.0481010045
H             0.6867550637           -1.7111781588           -0.7230290671
H             2.9680792754           -0.2617760243           -0.1724720160
H            -2.1535541998            0.8123490754           -0.5781040536
H            -2.1181171965            0.1336040124            1.0619030985
H            -2.0474181900           -0.9410660873           -0.3452370320
H             0.7899337339            1.3179053038            0.4170834184
          12
 
C            -0.2507920233            0.1241010115            0.0567790053
C             0.7702420715           -0.7164620665           -0.3131590291
C             1.9341351794            0.0204640019           -0.0333220031
N             1.6573501538            1.2248541136            0.4711090437
O             0.2737110254            1.2887061196            0.5274320489
C            -1.7203901596            0.0264040024            0.0481010045
H             0.6867550637           -1.7111781588           -0.7230290671
H             2.9680792754           -0.2617760243           -0.1724720160
H            -2.1535541998            0.8123490754           -0.5781040536
H            -2.1181171965            0.1336040124            1.0619030985
H            -2.0474181900           -0.9410660873           -0.3452370320
H             1.3244936090           -0.2859596071           -0.4259578388
          12
 
C            -0.2507920233            0.1241010115            0.0567790053
C             0.7702420715           -0.7164620665           -0.3131590291
C             1.9341351794            0.0204640019           -0.0333220031
N             1.6573501538            1.2248541136            0.4711090437
O             0.2737110254            1.2887061196            0.5274320489
C            -1.7203901596            0.0264040024            0.0481010045
H             0.6867550637           -1.7111781588           -0.7230290671
H             2.9680792754           -0.2617760243           -0.1724720160
H            -2.1535541998            0.8123490754           -0.5781040536
H            -2.1181171965            0.1336040124            1.0619030985
H            -2.0474181900           -0.9410660873           -0.3452370320
H             1.3347251907           -0.4812175270            0.0531436926
