 xtb: 6.6.0 (8843059)
          11142309453D

 11 11  0     0  0            999 V2000
   -0.2508    0.1241    0.0568 C   0  0  0  0  0  0  0  0  0  0  0  0
    0.7702   -0.7165   -0.3132 C   0  0  0  0  0  0  0  0  0  0  0  0
    1.9341    0.0205   -0.0333 C   0  0  0  0  0  0  0  0  0  0  0  0
    1.6574    1.2249    0.4711 N   0  0  0  0  0  0  0  0  0  0  0  0
    0.2737    1.2887    0.5274 O   0  0  0  0  0  0  0  0  0  0  0  0
   -1.7204    0.0264    0.0481 C   0  0  0  0  0  0  0  0  0  0  0  0
    0.6868   -1.7112   -0.7230 H   0  0  0  0  0  0  0  0  0  0  0  0
    2.9681   -0.2618   -0.1725 H   0  0  0  0  0  0  0  0  0  0  0  0
   -2.1536    0.8123   -0.5781 H   0  0  0  0  0  0  0  0  0  0  0  0
   -2.1181    0.1336    1.0619 H   0  0  0  0  0  0  0  0  0  0  0  0
   -2.0474   -0.9411   -0.3452 H   0  0  0  0  0  0  0  0  0  0  0  0
  1  2  2  0  0  0  0
  2  3  4  0  0  0  0
  3  4  2  0  0  0  0
  1  5  1  0  0  0  0
  4  5  1  0  0  0  0
  1  6  1  0  0  0  0
  2  7  1  0  0  0  0
  3  8  1  0  0  0  0
  6  9  1  0  0  0  0
  6 10  1  0  0  0  0
  6 11  1  0  0  0  0
M  END
