 xtb: 6.6.0 (8843059)
          03112419003D

 11 10  0     0  0            999 V2000
   -1.2526   -0.1782    0.1849 C   0  0  0  0  0  0  0  0  0  0  0  0
    0.0017    0.5828   -0.2102 C   0  0  0  0  0  0  0  0  0  0  0  0
    1.2513   -0.2617   -0.0262 C   0  0  0  0  0  0  0  0  0  0  0  0
   -1.2138   -0.4793    1.2366 H   0  0  0  0  0  0  0  0  0  0  0  0
   -1.3740   -1.0785   -0.4259 H   0  0  0  0  0  0  0  0  0  0  0  0
   -2.1376    0.4500    0.0437 H   0  0  0  0  0  0  0  0  0  0  0  0
    0.0831    1.4917    0.3962 H   0  0  0  0  0  0  0  0  0  0  0  0
   -0.0761    0.8957   -1.2573 H   0  0  0  0  0  0  0  0  0  0  0  0
    1.2090   -1.1646   -0.6437 H   0  0  0  0  0  0  0  0  0  0  0  0
    2.1398    0.3074   -0.3169 H   0  0  0  0  0  0  0  0  0  0  0  0
    1.3692   -0.5654    1.0189 H   0  0  0  0  0  0  0  0  0  0  0  0
  1  2  1  0  0  0  0
  2  3  1  0  0  0  0
  1  4  1  0  0  0  0
  1  5  1  0  0  0  0
  1  6  1  0  0  0  0
  2  7  1  0  0  0  0
  2  8  1  0  0  0  0
  3  9  1  0  0  0  0
  3 10  1  0  0  0  0
  3 11  1  0  0  0  0
M  END
